51

C         -0.0716972351074219     -0.3837833404541016      0.8738346099853516
C          0.0236921310424805      0.9132728576660156      0.4859933853149414
C          1.2395000457763672      0.0665664672851562      0.4553689956665039
O          2.4088211059570312     -0.1026659011840820      0.3602132797241211
H         -0.7542924880981445     -1.1479110717773438      1.3126134872436523
H         -0.4515027999877930      1.8546934127807617      0.4809293746948242
O          2.4088211059570312     -0.1026659011840820      0.3602132797241211
H         -0.7542924880981445     -1.1479110717773438      1.3126134872436523
H         -0.4515027999877930      1.8546934127807617      0.4809293746948242
O         -2.2745075225830078     -2.5346097946166992      0.2933073043823242
H         -2.6505956649780273     -1.7561745643615723     -0.2756738662719727
H         -1.9851660728454590     -3.2794775962829590     -0.3228721618652344
O          2.2319450378417969      1.6434030532836914     -2.2757587432861328
H          2.8743295669555664      1.1216430664062500     -1.6635737419128418
H          2.5826406478881836      1.6337995529174805     -3.2728285789489746
O         -2.5645627975463867      1.5962371826171875      2.3156423568725586
H         -1.8603391647338867      0.9428462982177734      2.5807008743286133
H         -2.3395242691040039      2.5075731277465820      2.6882057189941406
O          1.8783282041549683      3.1737699508666992      1.0136146545410156
H          2.3344039916992188      4.0006656646728516      0.5955696105957031
H          2.3508548736572266      2.3438577651977539      0.5924263000488281
O         -0.9910726547241211      3.0221347808837891     -2.2022252082824707
H         -0.4574527740478516      2.4969196319580078     -1.4437918663024902
H         -0.7133855819702148      2.6003208160400391     -3.1340589523315430
O          2.8190450668334961     -2.4732472896575928     -1.1637967824935913
H          1.8783969879150391     -2.2785935401916504     -1.6698317527770996
H          2.9149112701416016     -1.7157573699951172     -0.4343566894531250
O          0.7099971771240234     -2.3071417808532715     -3.4084739685058594
H          0.6924867630004883     -3.2257556915283203     -3.8801298141479492
H         -0.2368040084838867     -2.0456266403198242     -3.2322177886962891
O         -4.1488857269287109      0.5536832809448242     -0.2006883621215820
H         -3.6693177223205566      1.4791477918624878     -0.1446743011474609
H         -4.5388317108154297      0.4120721817016602      0.7861509323120117
O          0.0884017944335938      0.0489826202392578      4.3011140823364258
H          0.9485683441162109     -0.1141357421875000      4.8469066619873047
H          0.0765838623046875      0.9895315170288086      3.9043102264404297
O          1.0445823669433594     -3.7236666679382324      2.0208568572998047
H          0.0177803039550781     -3.7256722450256348      1.9966974258422852
H          1.4181175231933594     -4.2707810401916504      1.2375621795654297
O          0.0759830474853516      3.2490358352661133      3.2030344009399414
H          0.8643617630004883      3.4935951232910156      2.5896615982055664
H         -0.3213701248168945      4.1885356903076172      3.4817810058593750
O          3.8486948013305664     -1.8065781593322754      2.1480684280395508
H          3.4112787246704102     -2.7513232231140137      2.3155622482299805
H          3.0872478485107422     -1.1350306272506714      1.9073305130004883
O          4.8153390884399414      1.3758230209350586      0.1278200149536133
H          4.5034532546997070      0.4398050308227539      0.2749500274658203
H          5.6334438323974609      1.6054810285568237      0.7122421264648438
O         -2.9054694175720215      4.1509027481079102      0.3458051681518555
H         -2.0607419013977051      4.3999137878417969     -0.1256027221679688
H         -3.6886234283447266      4.3016452789306641     -0.3375959396362305
51

C         -0.0718425363302231     -0.3835502564907074      0.8742403984069824
C          0.0235468223690987      0.9135059714317322      0.4863991737365723
C          1.2393547296524048      0.0667995661497116      0.4557747840881348
O          2.4086759090423584     -0.1024328023195267      0.3606190681457520
H         -0.7544377446174622     -1.1476778984069824      1.3130191564559937
H         -0.4516481161117554      1.8549265861511230      0.4813351631164551
O          2.4086759090423584     -0.1024328023195267      0.3606190681457520
H         -0.7544377446174622     -1.1476778984069824      1.3130191564559937
H         -0.4516481161117554      1.8549265861511230      0.4813351631164551
O         -2.2718269824981689     -2.5323855876922607      0.2850642800331116
H         -2.6516492366790771     -1.7666405439376831     -0.2806110978126526
H         -1.9713029861450195     -3.2735908031463623     -0.3333197236061096
O          2.2232325077056885      1.6449941396713257     -2.2721788883209229
H          2.8739552497863770      1.1453635692596436     -1.6702857017517090
H          2.5742576122283936      1.5990829467773438     -3.2646048069000244
O         -2.5680780410766602      1.6025454998016357      2.3147265911102295
H         -1.8797540664672852      0.9746336936950684      2.5809991359710693
H         -2.3132748603820801      2.4974374771118164      2.6703195571899414
O          1.8767135143280029      3.1752738952636719      1.0069514513015747
H          2.3307874202728271      3.9860055446624756      0.6000128388404846
H          2.3559391498565674      2.3528397083282471      0.5886104106903076
O         -0.9890321493148804      3.0262131690979004     -2.2011539936065674
H         -0.4507475793361664      2.4996685981750488     -1.4554226398468018
H         -0.7069318890571594      2.6163313388824463     -3.1198251247406006
O          2.8150708675384521     -2.4740967750549316     -1.1599439382553101
H          1.8799674510955811     -2.2558400630950928     -1.6912770271301270
H          2.9435064792633057     -1.7144273519515991     -0.4681032896041870
O          0.7161099314689636     -2.3018753528594971     -3.4094715118408203
H          0.6962187290191650     -3.2287368774414062     -3.8843696117401123
H         -0.2175891399383545     -2.0818829536437988     -3.2259263992309570
O         -4.1501803398132324      0.5517372488975525     -0.2022061944007874
H         -3.6823306083679199      1.4781697988510132     -0.1497237831354141
H         -4.5227260589599609      0.4157540798187256      0.7955554723739624
O          0.0945443958044052      0.0463590882718563      4.2967476844787598
H          0.9580982923507690     -0.1068533733487129      4.8557910919189453
H          0.0768647417426109      0.9634975790977478      3.9197537899017334
O          1.0445041656494141     -3.7262973785400391      2.0214741230010986
H         -0.0032753737177700     -3.7346270084381104      2.0094530582427979
H          1.4337508678436279     -4.2611432075500488      1.2355886697769165
O          0.0740379914641380      3.2485592365264893      3.2021269798278809
H          0.8492268919944763      3.5028252601623535      2.5935800075531006
H         -0.3132515549659729      4.2081685066223145      3.4817225933074951
O          3.8478467464447021     -1.8077722787857056      2.1498456001281738
H          3.3991270065307617     -2.7788348197937012      2.3057789802551270
H          3.0828254222869873     -1.1662766933441162      1.9198166131973267
O          4.8145937919616699      1.3810249567031860      0.1237628459930420
H          4.5025815963745117      0.4259408116340637      0.2693839073181152
H          5.6294236183166504      1.5845021009445190      0.7039901018142700
O         -2.9045662879943848      4.1525692939758301      0.3463218510150909
H         -2.0543777942657471      4.3842768669128418     -0.1526903957128525
H         -3.6909606456756592      4.2915229797363281     -0.3470996916294098
51

C         -0.0441828705370426     -0.3747807145118713      0.8654069900512695
C          0.0522542484104633      0.8884622454643250      0.4840592443943024
C          1.2241123914718628      0.0705148056149483      0.4614407122135162
O          2.4085304737091064     -0.1021997034549713      0.3610248565673828
H         -0.7545830607414246     -1.1474447250366211      1.3134249448776245
H         -0.4517934322357178      1.8551597595214844      0.4817409515380859
O          2.4085304737091064     -0.1021997034549713      0.3610248565673828
H         -0.7545830607414246     -1.1474447250366211      1.3134249448776245
H         -0.4517934322357178      1.8551597595214844      0.4817409515380859
O         -2.2694509029388428     -2.5312938690185547      0.2778148651123047
H         -2.6432809829711914     -1.8003382682800293     -0.3015708923339844
H         -1.9722896814346313     -3.2355372905731201     -0.3508776724338531
O          2.2128224372863770      1.6472754478454590     -2.2665581703186035
H          2.8779852390289307      1.1707839965820312     -1.7040661573410034
H          2.5883319377899170      1.5514942407608032     -3.2613530158996582
O         -2.5708274841308594      1.6079120635986328      2.3140497207641602
H         -1.9260084629058838      1.0644797086715698      2.5785291194915771
H         -2.2730429172515869      2.4442253112792969      2.6509358882904053
O          1.8733072280883789      3.1782574653625488      1.0019327402114868
H          2.3332574367523193      3.9359664916992188      0.6006523370742798
H          2.3763370513916016      2.3774850368499756      0.5736195445060730
O         -0.9894871115684509      3.0328550338745117     -2.1998598575592041
H         -0.4168803989887238      2.4880738258361816     -1.5117672681808472
H         -0.6845311522483826      2.6151788234710693     -3.1068120002746582
O          2.8141150474548340     -2.4764573574066162     -1.1548529863357544
H          1.8550575971603394     -2.2087576389312744     -1.7135770320892334
H          2.9512395858764648     -1.7199842929840088     -0.5220234394073486
O          0.7209187746047974     -2.2943112850189209     -3.4095132350921631
H          0.6730412244796753     -3.2302334308624268     -3.8852035999298096
H         -0.1527850031852722     -2.1559131145477295     -3.2413790225982666
O         -4.1512465476989746      0.5485967397689819     -0.2065441459417343
H         -3.7014818191528320      1.4784231185913086     -0.1323343515396118
H         -4.5041103363037109      0.4371637105941772      0.8272823691368103
O          0.0985523387789726      0.0441657342016697      4.2909793853759766
H          0.9774594306945801     -0.0763708725571632      4.8610615730285645
H          0.1018961742520332      0.9068274497985840      3.9617259502410889
O          1.0465559959411621     -3.7279579639434814      2.0235159397125244
H         -0.0388134717941284     -3.7550277709960938      2.0053949356079102
H          1.4300601482391357     -4.2554535865783691      1.2278182506561279
O          0.0727792307734489      3.2455277442932129      3.2008500099182129
H          0.8202792406082153      3.5250728130340576      2.5997934341430664
H         -0.2951799035072327      4.2521343231201172      3.4739339351654053
O          3.8489696979522705     -1.8062371015548706      2.1511728763580322
H          3.3577845096588135     -2.8207080364227295      2.2939844131469727
H          3.0871112346649170     -1.2473946809768677      1.9783064126968384
O          4.8128161430358887      1.3868404626846313      0.1186785548925400
H          4.5686244964599609      0.4418403506278992      0.2764397561550140
H          5.6148610115051270      1.5367558002471924      0.6979757547378540
O         -2.9021725654602051      4.1537213325500488      0.3489733040332794
H         -2.0810616016387939      4.3686809539794922     -0.1899614632129669
H         -3.6839070320129395      4.2895226478576660     -0.3803033828735352
51

C          0.0291256885975599     -0.3609482347965240      0.8445099592208862
C          0.1367326378822327      0.8205253481864929      0.4748275279998779
C          1.1928324699401855      0.0794492289423943      0.4749041199684143
O          2.4083850383758545     -0.1019666045904160      0.3614306449890137
H         -0.7547283172607422     -1.1472115516662598      1.3138307332992554
H         -0.4519387483596802      1.8553928136825562      0.4821467101573944
O          2.4083850383758545     -0.1019666045904160      0.3614306449890137
H         -0.7547283172607422     -1.1472115516662598      1.3138307332992554
H         -0.4519387483596802      1.8553928136825562      0.4821467101573944
O         -2.2676913738250732     -2.5323939323425293      0.2710729539394379
H         -2.6090102195739746     -1.8932563066482544     -0.3432737886905670
H         -2.0086810588836670     -3.1204700469970703     -0.3697246313095093
O          2.2000350952148438      1.6502670049667358     -2.2559316158294678
H          2.8736689090728760      1.2115056514739990     -1.8095397949218750
H          2.6484105587005615      1.4771150350570679     -3.2655081748962402
O         -2.5712211132049561      1.6118756532669067      2.3144376277923584
H         -2.0130748748779297      1.2008463144302368      2.5629556179046631
H         -2.2300887107849121      2.3667950630187988      2.6272869110107422
O          1.8677994012832642      3.1855785846710205      0.9987667798995972
H          2.3301465511322021      3.8001914024353027      0.6091042757034302
H          2.4242067337036133      2.4254021644592285      0.5391849279403687
O         -0.9943196773529053      3.0439341068267822     -2.1977605819702148
H         -0.3371228575706482      2.4571251869201660     -1.6726391315460205
H         -0.6313900351524353      2.5821444988250732     -3.0867493152618408
O          2.8191134929656982     -2.4800486564636230     -1.1458854675292969
H          1.7819852828979492     -2.1140422821044922     -1.7382251024246216
H          2.9136843681335449     -1.7709727287292480     -0.6425412893295288
O          0.7213685512542725     -2.2821855545043945     -3.4072928428649902
H          0.6206938028335571     -3.2564039230346680     -3.8950269222259521
H          0.0078878318890929     -2.2771644592285156     -3.2878229618072510
O         -4.1517224311828613      0.5433891415596008     -0.2165055274963379
H         -3.7333376407623291      1.4782756567001343     -0.0724893361330032
H         -4.4821600914001465      0.4917829334735870      0.9058088064193726
O          0.0981653183698654      0.0453050956130028      4.2813467979431152
H          1.0183048248291016     -0.0002509593323339      4.8610463142395020
H          0.1759006679058075      0.7510145902633667      4.0709681510925293
O          1.0538213253021240     -3.7276673316955566      2.0283842086791992
H         -0.1228557676076889     -3.7969257831573486      1.9702107906341553
H          1.3921238183975220     -4.2592334747314453      1.2063114643096924
O          0.0737534239888191      3.2378377914428711      3.1980986595153809
H          0.7531913518905640      3.5649309158325195      2.6224961280822754
H         -0.2629424631595612      4.3466234207153320      3.4550943374633789
O          3.8512327671051025     -1.7980939149856567      2.1512057781219482
H          3.2645962238311768     -2.8861374855041504      2.2789671421051025
H          3.1412513256072998     -1.4420726299285889      2.1163117885589600
O          4.8097448348999023      1.3926974534988403      0.1126168966293335
H          4.7575559616088867      0.5322508811950684      0.3043486773967743
H          5.5644407272338867      1.4346429109573364      0.6842882037162781
O         -2.8962166309356689      4.1540179252624512      0.3556230068206787
H         -2.1784596443176270      4.3511185646057129     -0.2413526922464371
H         -3.6626794338226318      4.3030633926391602     -0.4628468453884125
51

C          0.1115488484501839     -0.3737978935241699      0.8303385376930237
C          0.2440183311700821      0.7571149468421936      0.4555207788944244
C          1.2028437852859497      0.0830799639225006      0.4875762760639191
O          2.4082398414611816     -0.1017335057258606      0.3618364036083221
H         -0.7548735737800598     -1.1469784975051880      1.3142364025115967
H         -0.4520840644836426      1.8556259870529175      0.4825524985790253
O          2.4082398414611816     -0.1017335057258606      0.3618364036083221
H         -0.7548735737800598     -1.1469784975051880      1.3142364025115967
H         -0.4520840644836426      1.8556259870529175      0.4825524985790253
O         -2.2664000988006592     -2.5354399681091309      0.2618751823902130
H         -2.5708649158477783     -1.9958007335662842     -0.3810856640338898
H         -2.0560760498046875     -2.9776685237884521     -0.3643869459629059
O          2.1883697509765625      1.6519500017166138     -2.2394480705261230
H          2.8198547363281250      1.2891778945922852     -1.9775632619857788
H          2.7401735782623291      1.3865530490875244     -3.3000743389129639
O         -2.5705685615539551      1.6124594211578369      2.3148782253265381
H         -2.0994546413421631      1.2041025161743164      2.5258517265319824
H         -2.2044284343719482      2.4761207103729248      2.6243324279785156
O          1.8625749349594116      3.1994287967681885      0.9949827790260315
H          2.2879064083099365      3.6111905574798584      0.6531624197959900
H          2.5041849613189697      2.4252889156341553      0.4821142256259918
O         -1.0015091896057129      3.0574452877044678     -2.1940019130706787
H         -0.2315062284469604      2.4229235649108887     -1.8871023654937744
H         -0.5615272521972656      2.5274364948272705     -3.0958075523376465
O          2.8278048038482666     -2.4800746440887451     -1.1316680908203125
H          1.6874049901962280     -1.9927445650100708     -1.7638895511627197
H          2.8395261764526367     -1.9271892309188843     -0.8599740862846375
O          0.7160543799400330     -2.2645068168640137     -3.4017243385314941
H          0.5740914940834045     -3.3784878253936768     -3.9527668952941895
H          0.2550109326839447     -2.3894190788269043     -3.3384265899658203
O         -4.1517682075500488      0.5367213487625122     -0.2305791676044464
H         -3.7706646919250488      1.4821287393569946      0.0134842498227954
H         -4.4615645408630371      0.5655782222747803      1.0234764814376831
O          0.0933809056878090      0.0525269024074078      4.2667827606201172
H          1.1236848831176758      0.0842190906405449      4.8968687057495117
H          0.2551660537719727      0.4903108775615692      4.2226471900939941
O          1.0663528442382812     -3.7252857685089111      2.0362663269042969
H         -0.2680831253528595     -3.8567912578582764      1.9097381830215454
H          1.3314800262451172     -4.2783803939819336      1.1622126102447510
O          0.0785465911030769      3.2287633419036865      3.1923511028289795
H          0.6332920193672180      3.5867002010345459      2.6847159862518311
H         -0.2359882891178131      4.4787979125976562      3.4411289691925049
O          3.8492507934570312     -1.7855064868927002      2.1503453254699707
H          3.1593978404998779     -2.9754197597503662      2.2643761634826660
H          3.2787413597106934     -1.6918613910675049      2.2834639549255371
O          4.8064460754394531      1.3962528705596924      0.1070978119969368
H          4.9526228904724121      0.6373839378356934      0.3100927472114563
H          5.5379929542541504      1.3624067306518555      0.6832633614540100
O         -2.8853881359100342      4.1543550491333008      0.3633765578269958
H         -2.3377697467803955      4.3231730461120605     -0.2695580720901489
H         -3.6568779945373535      4.3263435363769531     -0.5860965847969055
51

C          0.1691549569368362     -0.4322255551815033      0.8357303738594055
C          0.3350993394851685      0.7399119734764099      0.4243137836456299
C          1.3111131191253662      0.0714508667588234      0.4928301572799683
O          2.4080944061279297     -0.1015004068613052      0.3622421920299530
H         -0.7550188899040222     -1.1467453241348267      1.3146421909332275
H         -0.4522293508052826      1.8558591604232788      0.4829582870006561
O          2.4080944061279297     -0.1015004068613052      0.3622421920299530
H         -0.7550188899040222     -1.1467453241348267      1.3146421909332275
H         -0.4522293508052826      1.8558591604232788      0.4829582870006561
O         -2.2646684646606445     -2.5410418510437012      0.2512010931968689
H         -2.6172783374786377     -1.9361101388931274     -0.4324898123741150
H         -2.0344474315643311     -2.9640083312988281     -0.3288049101829529
O          2.1822800636291504      1.6501754522323608     -2.2194638252258301
H          2.6766729354858398      1.4199317693710327     -2.1728916168212891
H          2.8328118324279785      1.2977898120880127     -3.3628964424133301
O         -2.5716600418090820      1.6058452129364014      2.3133528232574463
H         -2.1739239692687988      1.0389384031295776      2.4702575206756592
H         -2.1630003452301025      2.8681135177612305      2.6710693836212158
O          1.8579434156417847      3.2210509777069092      0.9900582432746887
H          2.1796040534973145      3.4588868618011475      0.7521020174026489
H          2.6491529941558838      2.2635221481323242      0.3755713403224945
O         -1.0100364685058594      3.0723607540130615     -2.1886408329010010
H         -0.0862916037440300      2.3761043548583984     -2.0027644634246826
H         -0.5085051059722900      2.4667170047760010     -3.2431609630584717
O          2.8369262218475342     -2.4773025512695312     -1.1153225898742676
H          1.5714184045791626     -1.8673965930938721     -1.8017479181289673
H          2.7850525379180908     -2.1449658870697021     -1.1030921936035156
O          0.7103594541549683     -2.2420637607574463     -3.3942794799804688
H          0.5416349768638611     -3.6080183982849121     -4.0679125785827637
H          0.4906836748123169     -2.4718618392944336     -3.3672025203704834
O         -4.1521000862121582      0.5284549593925476     -0.2464292198419571
H         -3.7904202938079834      1.5209022760391235      0.0950165614485741
H         -4.4540019035339355      0.6298253536224365      1.1737806797027588
O          0.0838084667921066      0.0603536702692509      4.2489519119262695
H          1.3520725965499878      0.1354087442159653      5.0201430320739746
H          0.2874193191528320      0.2532856166362762      4.3387274742126465
O          1.0812697410583496     -3.7203073501586914      2.0482642650604248
H         -0.4528703987598419     -3.9283263683319092      1.8325541019439697
H          1.2662427425384521     -4.3297977447509766      1.0685988664627075
O          0.0873600244522095      3.2226083278656006      3.1830866336822510
H          0.4702594578266144      3.5426299571990967      2.7899410724639893
H         -0.2380489557981491      4.6320805549621582      3.4526803493499756
O          3.8451490402221680     -1.7718371152877808      2.1491546630859375
H          3.0677254199981689     -3.0538113117218018      2.2537996768951416
H          3.4409861564636230     -1.9642294645309448      2.4491891860961914
O          4.8033695220947266      1.3960889577865601      0.1024513989686966
H          5.1179747581481934      0.7767068147659302      0.2936790287494659
H          5.5377192497253418      1.3150100708007812      0.6905454397201538
O         -2.8699631690979004      4.1559262275695801      0.3669529557228088
H         -2.5329387187957764      4.2752523422241211     -0.2211904376745224
H         -3.6881716251373291      4.3500165939331055     -0.7196199297904968
51

C          0.1985354274511337     -0.5290051698684692      0.8582600951194763
C          0.4085237979888916      0.7577970623970032      0.3829971551895142
C          1.5111606121063232      0.0443173609673977      0.4919119477272034
O          2.4079492092132568     -0.1012673079967499      0.3626479804515839
H         -0.7551641464233398     -1.1465121507644653      1.3150479793548584
H         -0.4523746669292450      1.8560923337936401      0.4833640456199646
O          2.4079492092132568     -0.1012673079967499      0.3626479804515839
H         -0.7551641464233398     -1.1465121507644653      1.3150479793548584
H         -0.4523746669292450      1.8560923337936401      0.4833640456199646
O         -2.2603874206542969     -2.5521628856658936      0.2413740903139114
H         -2.8178157806396484     -1.5968639850616455     -0.5571587681770325
H         -1.9045861959457397     -3.1470556259155273     -0.2379290759563446
O          2.1778104305267334      1.6473199129104614     -2.1978509426116943
H          2.5048534870147705      1.5690175294876099     -2.3809211254119873
H          2.9279065132141113      1.2080014944076538     -3.4388239383697510
O         -2.5728750228881836      1.5931195020675659      2.3110275268554688
H         -2.2692446708679199      0.8667370676994324      2.4017245769500732
H         -2.0996189117431641      3.3639521598815918      2.7432045936584473
O          1.8511675596237183      3.2470026016235352      0.9864265322685242
H          2.0614664554595947      3.3372235298156738      0.8599026799201965
H          2.8444373607635498      1.9981659650802612      0.2296108901500702
O         -1.0197216272354126      3.0884194374084473     -2.1824383735656738
H          0.1093874648213387      2.3098638057708740     -1.9801292419433594
H         -0.4871063232421875      2.4071257114410400     -3.5422132015228271
O          2.8477659225463867     -2.4764156341552734     -1.0984287261962891
H          1.3974790573120117     -1.7184854745864868     -1.8675279617309570
H          2.7708792686462402     -2.3543479442596436     -1.3165407180786133
O          0.7081421017646790     -2.2155666351318359     -3.3858268260955811
H          0.5129964351654053     -3.9074163436889648     -4.2207789421081543
H          0.6582910418510437     -2.5555684566497803     -3.3880088329315186
O         -4.1529521942138672      0.5175225138664246     -0.2651036083698273
H         -3.7734286785125732      1.6285403966903687      0.1556945890188217
H         -4.4748291969299316      0.6675737500190735      1.3898260593414307
O          0.0686266347765923      0.0635053589940071      4.2288875579833984
H          1.6947680711746216      0.1646478623151779      5.2212367057800293
H          0.2943973839282990      0.1124139130115509      4.4124402999877930
O          1.0966540575027466     -3.7134087085723877      2.0635511875152588
H         -0.6597574949264526     -4.0048441886901855      1.7479938268661499
H          1.2050499916076660     -4.4111618995666504      0.9285811185836792
O          0.0983890295028687      3.2172694206237793      3.1718404293060303
H          0.3010136485099792      3.4383080005645752      2.9052684307098389
H         -0.2754657566547394      4.8343410491943359      3.4958679676055908
O          3.8435597419738770     -1.7566726207733154      2.1470348834991455
H          2.9657154083251953     -3.1511695384979248      2.2403302192687988
H          3.5843298435211182     -2.2369129657745361      2.6341392993927002
O          4.8050346374511719      1.3909780979156494      0.1015496477484703
H          5.3388257026672363      1.0933331251144409      0.3259623050689697
H          5.4071016311645508      1.1685837507247925      0.5896105766296387
O         -2.8510911464691162      4.1588215827941895      0.3648159503936768
H         -2.7745661735534668      4.2082781791687012     -0.0879422128200531
H         -3.7277176380157471      4.3717255592346191     -0.8473399281501770
51

C          0.2231450378894806     -0.6326376795768738      0.8847342729568481
C          0.4805036485195160      0.7767363786697388      0.3395672142505646
C          1.7074252367019653      0.0067285737022758      0.4964559972286224
O          2.4078037738800049     -0.1010342091321945      0.3630537390708923
H         -0.7553094625473022     -1.1462789773941040      1.3154536485671997
H         -0.4525199830532074      1.8563255071640015      0.4837698340415955
O          2.4078037738800049     -0.1010342091321945      0.3630537390708923
H         -0.7553094625473022     -1.1462789773941040      1.3154536485671997
H         -0.4525199830532074      1.8563255071640015      0.4837698340415955
O         -2.2529199123382568     -2.5696203708648682      0.2307241111993790
H         -3.0974545478820801     -1.1191413402557373     -0.7369353771209717
H         -1.7510594129562378     -3.3723988533020020     -0.0828609392046928
O          2.1674172878265381      1.6461931467056274     -2.1737279891967773
H          2.4037044048309326      1.7111133337020874     -2.5687599182128906
H          3.0486440658569336      1.0970187187194824     -3.5752122402191162
O         -2.5724024772644043      1.5763444900512695      2.3091950416564941
H         -2.3933968544006348      0.7699865698814392      2.3253679275512695
H         -2.0341401100158691      3.8487765789031982      2.8154349327087402
O          1.8430243730545044      3.2736389636993408      0.9839531183242798
H          1.9589996337890625      3.1999793052673340      0.9533804655075073
H          3.0311725139617920      1.7479435205459595      0.0805475488305092
O         -1.0307173728942871      3.1054937839508057     -2.1760115623474121
H          0.3371267020702362      2.2285339832305908     -1.9051132202148438
H         -0.4792576134204865      2.3472495079040527     -3.8967733383178711
O          2.8598005771636963     -2.4768371582031250     -1.0804399251937866
H          1.1797826290130615     -1.5394641160964966     -1.9447050094604492
H          2.7889192104339600     -2.5659055709838867     -1.5242400169372559
O          0.7070592045783997     -2.1867246627807617     -3.3767597675323486
H          0.4818870127201080     -4.2446141242980957     -4.3948917388916016
H          0.8029401302337646     -2.6458663940429688     -3.4090549945831299
O         -4.1539225578308105      0.5051617622375488     -0.2859172523021698
H         -3.7373349666595459      1.7723565101623535      0.2047851085662842
H         -4.5133938789367676      0.6915517449378967      1.6511815786361694
O          0.0503680519759655      0.0643085241317749      4.2069973945617676
H          2.0932905673980713      0.1909940540790558      5.4561843872070312
H          0.2943826317787170      0.0117109045386314      4.4812726974487305
O          1.1117624044418335     -3.7061419486999512      2.0796248912811279
H         -0.8761984705924988     -4.0812635421752930      1.6635419130325317
H          1.1463128328323364     -4.5022420883178711      0.7743476033210754
O          0.1095743626356125      3.2098920345306396      3.1606674194335938
H          0.1439457833766937      3.3277237415313721      3.0072650909423828
H         -0.3278123438358307      5.0754947662353516      3.5522751808166504
O          3.8405141830444336     -1.7451637983322144      2.1472065448760986
H          2.8413820266723633     -3.3152477741241455      2.1968045234680176
H          3.7845890522003174     -2.3810729980468750      2.8143913745880127
O          4.8198552131652832      1.3790754079818726      0.1081474721431732
H          5.5422716140747070      1.5732866525650024      0.4239361584186554
H          5.1017618179321289      0.9616987109184265      0.3018307089805603
O         -2.8301384449005127      4.1618103981018066      0.3632252514362335
H         -3.0433130264282227      4.1365227699279785      0.0540678650140762
H         -3.7731716632843018      4.3967261314392090     -0.9924932718276978
51

C          0.2557900846004486     -0.7195635437965393      0.9048463702201843
C          0.5699991583824158      0.7677160501480103      0.3005196452140808
C          1.8465240001678467     -0.0292260535061359      0.5094469785690308
O          2.4076583385467529     -0.1008011102676392      0.3634595274925232
H         -0.7554547190666199     -1.1460458040237427      1.3158594369888306
H         -0.4526652991771698      1.8565586805343628      0.4841756224632263
O          2.4076583385467529     -0.1008011102676392      0.3634595274925232
H         -0.7554547190666199     -1.1460458040237427      1.3158594369888306
H         -0.4526652991771698      1.8565586805343628      0.4841756224632263
O         -2.2443771362304688     -2.5895159244537354      0.2190197408199310
H         -3.3726177215576172     -0.6488164067268372     -0.9204273223876953
H         -1.6233201026916504     -3.5546181201934814      0.0890761911869049
O          2.1538159847259521      1.6448780298233032     -2.1488440036773682
H          2.3425021171569824      1.8745523691177368     -2.7256531715393066
H          3.1841893196105957      0.9662030339241028     -3.7560377120971680
O         -2.5707790851593018      1.5551859140396118      2.3075315952301025
H         -2.5347883701324463      0.7435685992240906      2.2465627193450928
H         -1.9649895429611206      4.3333592414855957      2.8888056278228760
O          1.8350313901901245      3.3008196353912354      0.9808974266052246
H          1.8479455709457397      3.0625514984130859      1.0617327690124512
H          3.2013804912567139      1.5000047683715820     -0.0678385943174362
O         -1.0431188344955444      3.1235878467559814     -2.1695940494537354
H          0.5827099084854126      2.1343135833740234     -1.8218208551406860
H         -0.4708287715911865      2.2855472564697266     -4.2581892013549805
O          2.8711631298065186     -2.4770729541778564     -1.0617165565490723
H          0.9473271369934082     -1.3463510274887085     -2.0166985988616943
H          2.8368346691131592     -2.7900454998016357     -1.7390681505203247
O          0.7058413028717041     -2.1581346988677979     -3.3685832023620605
H          0.4518205821514130     -4.5827436447143555     -4.5713853836059570
H          0.9442405700683594     -2.7356812953948975     -3.4232993125915527
O         -4.1550970077514648      0.4921119511127472     -0.3070609867572784
H         -3.6960043907165527      1.9292125701904297      0.2544100582599640
H         -4.5565395355224609      0.7124503254890442      1.9159159660339355
O          0.0315335541963577      0.0650085583329201      4.1841187477111816
H          2.5018737316131592      0.2171469926834106      5.6960659027099609
H          0.2934481799602509     -0.0871619582176208      4.5608692169189453
O          1.1267342567443848     -3.6982843875885010      2.0966057777404785
H         -1.0941629409790039     -4.1569819450378418      1.5811357498168945
H          1.0884772539138794     -4.6043562889099121      0.6035241484642029
O          0.1205929592251778      3.2021164894104004      3.1494381427764893
H         -0.0133523037657142      3.2246932983398438      3.1113991737365723
H         -0.3792965412139893      5.3155465126037598      3.6071884632110596
O          3.8342068195343018     -1.7404758930206299      2.1519300937652588
H          2.6850113868713379     -3.5192501544952393      2.1100161075592041
H          4.0718736648559570     -2.3763353824615479      2.9666314125061035
O          4.8477797508239746      1.3643348217010498      0.1201399490237236
H          5.5313401222229004      1.9702517986297607      0.4970590472221375
H          4.8232631683349609      0.8738487958908081     -0.0513388067483902
O         -2.8078718185424805      4.1654958724975586      0.3657926619052887
H         -3.3021810054779053      4.0401225090026855      0.1715835332870483
H         -3.8493552207946777      4.4353222846984863     -1.1791495084762573
