51

C         -0.3501710891723633     -0.9304409027099609     -0.0626077651977539
C         -0.3584499359130859      0.3766078948974609     -0.4024362564086914
C          0.9146938323974609     -0.1439886093139648      0.0243844985961914
O          2.0873661041259766      0.0102386474609375      0.1558322906494141
H         -0.9192132949829102     -1.8967084884643555      0.0194768905639648
H         -0.9434708952903748      1.1466741561889648     -0.8108849525451660
O          2.0873661041259766      0.0102386474609375      0.1558322906494141
H         -0.9192132949829102     -1.8967084884643555      0.0194768905639648
H         -0.9434708952903748      1.1466741561889648     -0.8108849525451660
O         -2.9424614906311035     -0.7003917694091797     -1.1605463027954102
H         -3.3900752067565918      0.1623697131872177     -1.4445910453796387
H         -3.0775842666625977     -0.6850242614746094     -0.1246509552001953
O         -2.7399659156799316      0.6242618560791016      1.7664318084716797
H         -2.8593769073486328      1.6660995483398438      1.8767957687377930
H         -1.7731523513793945      0.4308834075927734      2.1551294326782227
O         -1.2177329063415527     -1.5295124053955078     -3.3091568946838379
H         -2.0131592750549316     -1.3626279830932617     -3.9896554946899414
H         -1.7244440317153931     -1.2502641677856445     -2.4547748565673828
O          1.1691884994506836     -3.1147985458374023     -2.0150990486145020
H          0.2919607162475586     -3.0758576393127441     -2.5704994201660156
H          0.8544320464134216     -2.6754746437072754     -1.1788005828857422
O         -1.0764136314392090     -3.6110315322875977      1.2772312164306641
H         -0.3605623245239258     -4.2419137954711914      1.7948055267333984
H         -1.7140512466430664     -3.1629838943481445      1.9629783630371094
O          3.1584482192993164      3.0420360565185547      0.1184797286987305
H          2.7739734649658203      2.0916500091552734      0.3303871154785156
H          3.9992790222167969      2.9839944839477539     -0.4647789001464844
O          3.3281707763671875     -1.9491643905639648      2.2773809432983398
H          4.1918411254882812     -2.4254069328308105      1.9269094467163086
H          3.0114154815673828     -1.2650861740112305      1.5883197784423828
O         -1.0354413986206055      3.7389745712280273     -2.5738186836242676
H         -0.0786924362182617      3.3517484664916992     -2.8543467521667480
H         -0.9547643661499023      4.7818837165832520     -2.6688933372497559
O          1.4575101137161255      2.4281558990478516     -3.6959819793701172
H          1.3762826919555664      1.4467897415161133     -4.0370039939880371
H          2.4626791477203369      2.5675125122070312     -3.8086318969726562
O          1.3212767839431763     -0.5075950622558594     -4.4763998985290527
H          0.8651742935180664     -0.7475919723510742     -5.3731541633605957
H          0.9024219512939453     -1.1864938735961914     -3.8330183029174805
O          4.3237628936767578      0.9515724182128906     -2.0177226066589355
H          4.8695831298828125      0.0077123641967773     -2.1122870445251465
H          3.4660444259643555      0.7536687850952148     -1.5212836265563965
O         -3.0735521316528320     -2.1553049087524414      3.1207122802734375
H         -4.0129346847534180     -2.6275911331176758      3.1828708648681641
H         -3.2163181304931641     -1.1443653106689453      2.8641414642333984
O          4.3144464492797852     -2.0804042816162109     -1.5436773300170898
H          3.7535696029663086     -2.2587680816650391     -2.4157247543334961
H          3.5894050598144531     -1.6303814649581909     -0.8832268714904785
O          0.8268194198608398     -3.8207700252532959      3.3324012756347656
H          1.4239568710327148     -2.9291443824768066      3.2194833755493164
H          1.3757343292236328     -4.4899129867553711      3.8815259933471680
51

C         -0.3504036962985992     -0.9300785064697266     -0.0627367570996284
C         -0.3586825132369995      0.3769702613353729     -0.4025652408599854
C          0.9144612550735474     -0.1436262279748917      0.0242555085569620
O          2.0871336460113525      0.0106010297313333      0.1557033061981201
H         -0.9194458723068237     -1.8963460922241211      0.0193479023873806
H         -0.9437035322189331      1.1470364332199097     -0.8110139966011047
O          2.0871336460113525      0.0106010297313333      0.1557033061981201
H         -0.9194458723068237     -1.8963460922241211      0.0193479023873806
H         -0.9437035322189331      1.1470364332199097     -0.8110139966011047
O         -2.9392116069793701     -0.6920549273490906     -1.1641988754272461
H         -3.3867528438568115      0.1504844874143600     -1.4550800323486328
H         -3.0842070579528809     -0.6778247952461243     -0.1196585223078728
O         -2.7347171306610107      0.6228483915328979      1.7672507762908936
H         -2.8514618873596191      1.6539074182510376      1.8733834028244019
H         -1.7560790777206421      0.4400642216205597      2.1614077091217041
O         -1.2140424251556396     -1.5274020433425903     -3.3121879100799561
H         -2.0207617282867432     -1.3562134504318237     -3.9810264110565186
H         -1.7012492418289185     -1.2656496763229370     -2.4554381370544434
O          1.1677914857864380     -3.1125636100769043     -2.0173990726470947
H          0.3105663061141968     -3.0532970428466797     -2.5814595222473145
H          0.8715655803680420     -2.6837263107299805     -1.2060894966125488
O         -1.0784121751785278     -3.6081819534301758      1.2796090841293335
H         -0.3602192699909210     -4.2399816513061523      1.8331354856491089
H         -1.7060996294021606     -3.1733539104461670      1.9347937107086182
O          3.1621770858764648      3.0434553623199463      0.1171421185135841
H          2.8015761375427246      2.0973632335662842      0.3362637758255005
H          4.0065255165100098      2.9891898632049561     -0.4770520329475403
O          3.3278028964996338     -1.9498336315155029      2.2840209007263184
H          4.2167220115661621     -2.4305014610290527      1.9088242053985596
H          3.0000636577606201     -1.2804405689239502      1.5810061693191528
O         -1.0410519838333130      3.7405571937561035     -2.5745632648468018
H         -0.0670861154794693      3.3540697097778320     -2.8536417484283447
H         -0.9559972286224365      4.8069138526916504     -2.6592898368835449
O          1.4583717584609985      2.4224758148193359     -3.7023541927337646
H          1.3717274665832520      1.4705159664154053     -4.0459008216857910
H          2.4459326267242432      2.5755727291107178     -3.8157880306243896
O          1.3182996511459351     -0.5081477761268616     -4.4758849143981934
H          0.8580123186111450     -0.7459919452667236     -5.3845257759094238
H          0.9148809313774109     -1.1759237051010132     -3.8243467807769775
O          4.3166904449462891      0.9564093947410583     -2.0181376934051514
H          4.9097251892089844     -0.0181909855455160     -2.1130871772766113
H          3.4532744884490967      0.7939199805259705     -1.5114520788192749
O         -3.0781383514404297     -2.1530475616455078      3.1210944652557373
H         -4.0138521194458008     -2.6114237308502197      3.1723742485046387
H         -3.1996269226074219     -1.1336761713027954      2.8532481193542480
O          4.3200502395629883     -2.0787856578826904     -1.5443080663681030
H          3.7571454048156738     -2.2643325328826904     -2.4363462924957275
H          3.5812132358551025     -1.6313956975936890     -0.8980798721313477
O          0.8169144988059998     -3.8200991153717041      3.3266739845275879
H          1.4205780029296875     -2.9273538589477539      3.2277579307556152
H          1.3650326728820801     -4.4964733123779297      3.8985059261322021
51

C         -0.3220002055168152     -0.9137640595436096     -0.0600644387304783
C         -0.3308771252632141      0.3635287284851074     -0.3919859230518341
C          0.8989209532737732     -0.1468273997306824      0.0202622041106224
O          2.0869011878967285      0.0109634120017290      0.1555743068456650
H         -0.9196784496307373     -1.8959838151931763      0.0192189142107964
H         -0.9439361095428467      1.1473988294601440     -0.8111429810523987
O          2.0869011878967285      0.0109634120017290      0.1555743068456650
H         -0.9196784496307373     -1.8959838151931763      0.0192189142107964
H         -0.9439361095428467      1.1473988294601440     -0.8111429810523987
O         -2.9350671768188477     -0.6838457584381104     -1.1714379787445068
H         -3.3734941482543945      0.1134013757109642     -1.4312899112701416
H         -3.1005294322967529     -0.6520113945007324     -0.1117781996726990
O         -2.7317783832550049      0.6206609010696411      1.7663999795913696
H         -2.8230638504028320      1.6454694271087646      1.8814146518707275
H         -1.7160773277282715      0.4723091423511505      2.1773576736450195
O         -1.2098758220672607     -1.5253905057907104     -3.3139719963073730
H         -2.0461697578430176     -1.3436390161514282     -3.9724695682525635
H         -1.6978425979614258     -1.2758684158325195     -2.4584743976593018
O          1.1666895151138306     -3.1095571517944336     -2.0175185203552246
H          0.3268499970436096     -3.0303227901458740     -2.5821914672851562
H          0.8967324495315552     -2.7125411033630371     -1.2798771858215332
O         -1.0836980342864990     -3.6055552959442139      1.2817457914352417
H         -0.3258267343044281     -4.2579078674316406      1.9185564517974854
H         -1.6756993532180786     -3.2034370899200439      1.9046307802200317
O          3.1649682521820068      3.0469923019409180      0.1165109127759933
H          2.8451633453369141      2.0980248451232910      0.3338199555873871
H          4.0141730308532715      2.9727709293365479     -0.4905814826488495
O          3.3249647617340088     -1.9496344327926636      2.2926163673400879
H          4.2626800537109375     -2.4373641014099121      1.8644707202911377
H          3.0175240039825439     -1.3221914768218994      1.5848071575164795
O         -1.0499365329742432      3.7402300834655762     -2.5741388797760010
H         -0.0182638671249151      3.3604836463928223     -2.8665432929992676
H         -0.9379409551620483      4.8562574386596680     -2.6568698883056641
O          1.4593604803085327      2.4171209335327148     -3.7086796760559082
H          1.3842180967330933      1.5097682476043701     -4.0509891510009766
H          2.4054834842681885      2.5677046775817871     -3.8242132663726807
O          1.3166919946670532     -0.5081058740615845     -4.4741230010986328
H          0.8365994095802307     -0.7620728015899658     -5.3845582008361816
H          0.9304772019386292     -1.1576473712921143     -3.8506519794464111
O          4.3084936141967773      0.9645007848739624     -2.0186617374420166
H          4.9645929336547852     -0.0776659920811653     -2.1133880615234375
H          3.4459447860717773      0.8219737410545349     -1.5036904811859131
O         -3.0803456306457520     -2.1525387763977051      3.1223595142364502
H         -4.0332708358764648     -2.5837938785552979      3.1567344665527344
H         -3.2103879451751709     -1.1176050901412964      2.8436317443847656
O          4.3291573524475098     -2.0782692432403564     -1.5442545413970947
H          3.7330753803253174     -2.2658112049102783     -2.4653658866882324
H          3.5429465770721436     -1.6251887083053589     -0.9135274887084961
O          0.8033671975135803     -3.8210527896881104      3.3197009563446045
H          1.4469296932220459     -2.9072990417480469      3.2431056499481201
H          1.3736803531646729     -4.4978599548339844      3.9194068908691406
51

C         -0.2439681142568588     -0.8802427649497986     -0.0501792915165424
C         -0.2514190971851349      0.3289487957954407     -0.3628339469432831
C          0.8669435381889343     -0.1566673368215561      0.0114177120849490
O          2.0866684913635254      0.0113257942721248      0.1554453223943710
H         -0.9199110865592957     -1.8956214189529419      0.0190899260342121
H         -0.9441686868667603      1.1477612257003784     -0.8112719655036926
O          2.0866684913635254      0.0113257942721248      0.1554453223943710
H         -0.9199110865592957     -1.8956214189529419      0.0190899260342121
H         -0.9441686868667603      1.1477612257003784     -0.8112719655036926
O         -2.9301295280456543     -0.6740698814392090     -1.1864403486251831
H         -3.3272070884704590      0.0055773910135031     -1.3440039157867432
H         -3.1338019371032715     -0.5983334183692932     -0.0839088410139084
O         -2.7336542606353760      0.6174650788307190      1.7622653245925903
H         -2.7555074691772461      1.6387609243392944      1.9108620882034302
H         -1.6262028217315674      0.5463686585426331      2.2147004604339600
O         -1.2046829462051392     -1.5235099792480469     -3.3129079341888428
H         -2.1111888885498047     -1.3186604976654053     -3.9703502655029297
H         -1.7307056188583374     -1.2756874561309814     -2.4664549827575684
O          1.1659047603607178     -3.1046521663665771     -2.0126304626464844
H          0.3259423375129700     -3.0148279666900635     -2.5947322845458984
H          0.9493499994277954     -2.7772963047027588     -1.4201283454895020
O         -1.0963388681411743     -3.6023082733154297      1.2851036787033081
H         -0.2293020635843277     -4.3051996231079102      2.0961914062500000
H         -1.5766781568527222     -3.2884426116943359      1.8448863029479980
O          3.1652369499206543      3.0541779994964600      0.1177037656307220
H          2.9273757934570312      2.1003384590148926      0.3105962574481964
H          4.0259575843811035      2.9105246067047119     -0.5085242986679077
O          3.3168549537658691     -1.9467226266860962      2.3039028644561768
H          4.3491282463073730     -2.4478676319122314      1.7690844535827637
H          3.0967574119567871     -1.4271662235260010      1.6229277849197388
O         -1.0654379129409790      3.7357480525970459     -2.5713922977447510
H          0.1153704151511192      3.3634026050567627     -2.9102759361267090
H         -0.8858546018600464      4.9679207801818848     -2.6677081584930420
O          1.4616273641586304      2.4113228321075439     -3.7154998779296875
H          1.4126660823822021      1.5870082378387451     -4.0428829193115234
H          2.3150801658630371      2.5454413890838623     -3.8278927803039551
O          1.3171005249023438     -0.5083873271942139     -4.4683675765991211
H          0.7851658463478088     -0.8128066658973694     -5.3709321022033691
H          0.9638730883598328     -1.1048521995544434     -3.9621155261993408
O          4.2987689971923828      0.9780710935592651     -2.0196166038513184
H          5.0512924194335938     -0.1967605948448181     -2.1153242588043213
H          3.4360644817352295      0.8320867419242859     -1.4947470426559448
O         -3.0777165889739990     -2.1560060977935791      3.1254625320434570
H         -4.0896611213684082     -2.5325627326965332      3.1307916641235352
H         -3.2758004665374756     -1.0824851989746094      2.8340239524841309
O          4.3456811904907227     -2.0797903537750244     -1.5426186323165894
H          3.6512198448181152     -2.2631440162658691     -2.5230484008789062
H          3.4409081935882568     -1.6008968353271484     -0.9222936630249023
O          0.7817980051040649     -3.8247120380401611      3.3092119693756104
H          1.5322936773300171     -2.8447051048278809      3.2711110115051270
H          1.4281778335571289     -4.5052046775817871      3.9595472812652588
51

C         -0.1488725841045380     -0.8718432784080505     -0.0305003281682730
C         -0.1534959077835083      0.3027640879154205     -0.3310677707195282
C          0.8746988773345947     -0.1696479618549347      0.0085694296285510
O          2.0864360332489014      0.0116881765425205      0.1553163379430771
H         -0.9201436638832092     -1.8952590227127075      0.0189609359949827
H         -0.9444012641906738      1.1481235027313232     -0.8114010095596313
O          2.0864360332489014      0.0116881765425205      0.1553163379430771
H         -0.9201436638832092     -1.8952590227127075      0.0189609359949827
H         -0.9444012641906738      1.1481235027313232     -0.8114010095596313
O         -2.9259104728698730     -0.6601857542991638     -1.2090561389923096
H         -3.2325603961944580     -0.1847785711288452     -1.2428089380264282
H         -3.1736781597137451     -0.5484446883201599      0.0073138563893735
O         -2.7387349605560303      0.6139908432960510      1.7558248043060303
H         -2.6662309169769287      1.6373486518859863      1.9549460411071777
H         -1.4968543052673340      0.6431089639663696      2.2687199115753174
O         -1.1983615159988403     -1.5215984582901001     -3.3093464374542236
H         -2.2169346809387207     -1.2832415103912354     -3.9857032299041748
H         -1.7984479665756226     -1.2609577178955078     -2.4627375602722168
O          1.1676726341247559     -3.0979433059692383     -2.0008196830749512
H          0.2530152499675751     -3.0125098228454590     -2.6852743625640869
H          1.0447206497192383     -2.8692312240600586     -1.5865802764892578
O         -1.1150171756744385     -3.5981361865997314      1.2928415536880493
H         -0.1207568868994713     -4.3604583740234375      2.3117985725402832
H         -1.3889385461807251     -3.4369347095489502      1.7268164157867432
O          3.1618161201477051      3.0628721714019775      0.1215244978666306
H          3.0572905540466309      2.1381161212921143      0.2601633369922638
H          4.0509972572326660      2.8032281398773193     -0.5356914401054382
O          3.3049058914184570     -1.9397718906402588      2.3136048316955566
H          4.4546074867248535     -2.4580409526824951      1.6446102857589722
H          3.2284946441650391     -1.6046923398971558      1.7241640090942383
O         -1.0853742361068726      3.7280390262603760     -2.5671572685241699
H          0.3224420845508575      3.3484470844268799     -2.9808444976806641
H         -0.8172850012779236      5.1377968788146973     -2.6856334209442139
O          1.4649292230606079      2.4051969051361084     -3.7227118015289307
H          1.4043769836425781      1.6534471511840820     -4.0319228172302246
H          2.2257795333862305      2.5626718997955322     -3.8146979808807373
O          1.3177710771560669     -0.5118364691734314     -4.4564833641052246
H          0.7003014683723450     -0.8835328817367554     -5.4016132354736328
H          1.0404278039932251     -0.9915861487388611     -4.1336731910705566
O          4.2892074584960938      0.9952843785285950     -2.0215835571289062
H          5.1741456985473633     -0.3626951277256012     -2.1236841678619385
H          3.3936011791229248      0.8356874585151672     -1.4735517501831055
O         -3.0695009231567383     -2.1636078357696533      3.1304087638854980
H         -4.1953845024108887     -2.4637517929077148      3.0955979824066162
H         -3.3926713466644287     -1.0153822898864746      2.8208684921264648
O          4.3684082031250000     -2.0827136039733887     -1.5396225452423096
H          3.5226233005523682     -2.2628996372222900     -2.6168975830078125
H          3.2826087474822998     -1.5564397573471069     -0.9135823249816895
O          0.7537246942520142     -3.8290629386901855      3.2952640056610107
H          1.6604667901992798     -2.7447834014892578      3.3104422092437744
H          1.5317088365554810     -4.5389375686645508      4.0344142913818359
51

C         -0.0705133900046349     -0.9163812994956970     -0.0015061619924381
C         -0.0788094028830528      0.3159691989421844     -0.3145788311958313
C          0.9797376990318298     -0.1767445653676987      0.0200707223266363
O          2.0862035751342773      0.0120505588129163      0.1551873385906219
H         -0.9203762412071228     -1.8948967456817627      0.0188319478183985
H         -0.9446338415145874      1.1484858989715576     -0.8115299940109253
O          2.0862035751342773      0.0120505588129163      0.1551873385906219
H         -0.9203762412071228     -1.8948967456817627      0.0188319478183985
H         -0.9446338415145874      1.1484858989715576     -0.8115299940109253
O         -2.9205131530761719     -0.6457611322402954     -1.2346280813217163
H         -3.1332778930664062     -0.3838295638561249     -1.1643377542495728
H         -3.2092597484588623     -0.5206485986709595      0.1192732378840446
O         -2.7449076175689697      0.6096982359886169      1.7483767271041870
H         -2.5897014141082764      1.6806021928787231      2.0041515827178955
H         -1.3268425464630127      0.7309888005256653      2.3361487388610840
O         -1.1905114650726318     -1.5195044279098511     -3.3059489727020264
H         -2.3533995151519775     -1.2430624961853027     -4.0303177833557129
H         -1.9092502593994141     -1.2251235246658325     -2.3984134197235107
O          1.1729469299316406     -3.0914504528045654     -1.9860569238662720
H          0.1079505309462547     -3.0252037048339844     -2.8546357154846191
H          1.1709967851638794     -2.9577589035034180     -1.7148779630661011
O         -1.1355997323989868     -3.5947721004486084      1.3032791614532471
H         -0.0328869149088860     -4.4207849502563477      2.5226833820343018
H         -1.1585000753402710     -3.6120626926422119      1.5906677246093750
O          3.1552789211273193      3.0689456462860107      0.1277813017368317
H          3.1975769996643066      2.2406573295593262      0.2086090594530106
H          4.1158208847045898      2.6885757446289062     -0.5895903110504150
O          3.2916359901428223     -1.9296725988388062      2.3202645778656006
H          4.5924625396728516     -2.4867768287658691      1.5086613893508911
H          3.3566241264343262     -1.8100410699844360      1.8813221454620361
O         -1.1065481901168823      3.7185406684875488     -2.5626170635223389
H          0.5452168583869934      3.3381319046020508     -3.0519082546234131
H         -0.7444233298301697      5.3368339538574219     -2.7053830623626709
O          1.4672209024429321      2.4010097980499268     -3.7290120124816895
H          1.2921911478042603      1.5778049230575562     -4.0605564117431641
H          2.2564063072204590      2.6949255466461182     -3.7770011425018311
O          1.3176195621490479     -0.5182440876960754     -4.4412364959716797
H          0.5996019244194031     -0.9551920890808105     -5.4786505699157715
H          1.1503605842590332     -0.8385918140411377     -4.3156032562255859
O          4.2812376022338867      1.0150243043899536     -2.0251939296722412
H          5.3282303810119629     -0.5626959800720215     -2.1383383274078369
H          3.3027610778808594      0.8307448029518127     -1.4391491413116455
O         -3.0560884475708008     -2.1740651130676270      3.1366491317749023
H         -4.3585972785949707     -2.3966598510742188      3.0555272102355957
H         -3.5442965030670166     -0.9150795340538025      2.8064692020416260
O          4.3941493034362793     -2.0862789154052734     -1.5359760522842407
H          3.3714873790740967     -2.2664222717285156     -2.7323708534240723
H          3.0984821319580078     -1.5073541402816772     -0.8953118324279785
O          0.7221537828445435     -3.8323159217834473      3.2787873744964600
H          1.8051145076751709     -2.6257281303405762      3.3625855445861816
H          1.6736738681793213     -4.6018424034118652      4.1440229415893555
51

C         -0.0164547730237246     -1.0039591789245605      0.0334563925862312
C         -0.0361009091138840      0.3660243153572083     -0.3142308890819550
C          1.1828734874725342     -0.1740500628948212      0.0438588745892048
O          2.0859708786010742      0.0124129410833120      0.1550583541393280
H         -0.9206088185310364     -1.8945343494415283      0.0187029596418142
H         -0.9448664188385010      1.1488481760025024     -0.8116589784622192
O          2.0859708786010742      0.0124129410833120      0.1550583541393280
H         -0.9206088185310364     -1.8945343494415283      0.0187029596418142
H         -0.9448664188385010      1.1488481760025024     -0.8116589784622192
O         -2.9123785495758057     -0.6342526674270630     -1.2617284059524536
H         -3.0688846111297607     -0.5401174426078796     -1.0665525197982788
H         -3.2470390796661377     -0.4961697161197662      0.2123774588108063
O         -2.7529227733612061      0.6027302742004395      1.7398704290390015
H         -2.5354027748107910      1.7993654012680054      2.0561525821685791
H         -1.0964951515197754      0.8011009693145752      2.4238760471343994
O         -1.1802397966384888     -1.5173604488372803     -3.3036406040191650
H         -2.5206224918365479     -1.1992965936660767     -4.1094856262207031
H         -2.0470235347747803     -1.1804112195968628     -2.2794127464294434
O          1.1802054643630981     -3.0863263607025146     -1.9724147319793701
H         -0.0776629149913788     -3.0498003959655762     -3.0715756416320801
H          1.3171637058258057     -3.0246615409851074     -1.7732034921646118
O         -1.1564378738403320     -3.5931646823883057      1.3151577711105347
H          0.0319501496851444     -4.4950327873229980      2.7244074344635010
H         -0.9239370226860046     -3.7881267070770264      1.4511766433715820
O          3.1484913825988770      3.0678389072418213      0.1350015401840210
H          3.2974200248718262      2.4432351589202881      0.1884823143482208
H          4.2258000373840332      2.6102166175842285     -0.6709662079811096
O          3.2772998809814453     -1.9183585643768311      2.3267319202423096
H          4.7842893600463867     -2.5455274581909180      1.3549400568008423
H          3.4520311355590820     -2.0035867691040039      2.0573840141296387
O         -1.1276501417160034      3.7079014778137207     -2.5582118034362793
H          0.7290915250778198      3.3701705932617188     -3.0932159423828125
H         -0.6689140200614929      5.5487465858459473     -2.7260937690734863
O          1.4704601764678955      2.3969733715057373     -3.7356204986572266
H          1.1248391866683960      1.4098448753356934     -4.1184239387512207
H          2.3626871109008789      2.8857352733612061     -3.7307271957397461
O          1.3182228803634644     -0.5238144993782043     -4.4259300231933594
H          0.5032710433006287     -1.0273014307022095     -5.5455751419067383
H          1.2435277700424194     -0.7041997313499451     -4.5096974372863770
O          4.2753424644470215      1.0353744029998779     -2.0304372310638428
H          5.4885497093200684     -0.7736640572547913     -2.1529345512390137
H          3.1829292774200439      0.8124692440032959     -1.4148125648498535
O         -3.0399415493011475     -2.1861698627471924      3.1435050964355469
H         -4.5570602416992188     -2.3431289196014404      3.0151412487030029
H         -3.7108385562896729     -0.7847738265991211      2.7926642894744873
O          4.4218254089355469     -2.0900280475616455     -1.5323051214218140
H          3.2099597454071045     -2.2734448909759521     -2.8614420890808105
H          2.9055559635162354     -1.4690120220184326     -0.8769682049751282
O          0.6894057393074036     -3.8340046405792236      3.2607963085174561
H          1.9576982259750366     -2.4975383281707764      3.4262049198150635
H          1.8418307304382324     -4.6838288307189941      4.2779927253723145
51

C          0.0341808684170246     -1.0926599502563477      0.0677936449646950
C         -0.0003908060898539      0.4170798063278198     -0.3158188760280609
C          1.3791152238845825     -0.1818872094154358      0.0663575828075409
O          2.0857384204864502      0.0127753233537078      0.1549293696880341
H         -0.9208413958549500     -1.8941720724105835      0.0185739714652300
H         -0.9450990557670593      1.1492105722427368     -0.8117880225181580
O          2.0857384204864502      0.0127753233537078      0.1549293696880341
H         -0.9208413958549500     -1.8941720724105835      0.0185739714652300
H         -0.9450990557670593      1.1492105722427368     -0.8117880225181580
O         -2.9013705253601074     -0.6250913143157959     -1.2896850109100342
H         -3.0480589866638184     -0.6579245924949646     -0.9845551848411560
H         -3.2921698093414307     -0.4710467159748077      0.3349240720272064
O         -2.7616758346557617      0.5941455960273743      1.7311863899230957
H         -2.4829185009002686      1.9533543586730957      2.1101744174957275
H         -0.8468133211135864      0.8690232634544373      2.5187611579895020
O         -1.1679012775421143     -1.5155673027038574     -3.3018517494201660
H         -2.7058551311492920     -1.1529899835586548     -4.2055478096008301
H         -2.1969220638275146     -1.1371442079544067     -2.1476151943206787
O          1.1890124082565308     -3.0817315578460693     -1.9583088159561157
H         -0.2988063693046570     -3.0738420486450195     -3.3212816715240479
H          1.4754700660705566     -3.0844419002532959     -1.8059140443801880
O         -1.1785130500793457     -3.5931601524353027      1.3291440010070801
H          0.0623158290982246     -4.5988588333129883      2.9008080959320068
H         -0.6738843321800232     -3.9694736003875732      1.3003591299057007
O          3.1414718627929688      3.0615212917327881      0.1432786583900452
H          3.3872709274291992      2.7355268001556396      0.1699204444885254
H          4.3542609214782715      2.5518321990966797     -0.7500923871994019
O          3.2623622417449951     -1.9067229032516479      2.3344891071319580
H          5.0011906623840332     -2.6153376102447510      1.1906508207321167
H          3.5288991928100586     -2.1928713321685791      2.2258892059326172
O         -1.1485292911529541      3.6969335079193115     -2.5539138317108154
H          0.8641934990882874      3.4707477092742920     -3.0896370410919189
H         -0.5934710502624512      5.7647166252136230     -2.7468996047973633
O          1.4765276908874512      2.3933253288269043     -3.7426578998565674
H          0.9438588023185730      1.1766796112060547     -4.2077379226684570
H          2.4830696582794189      3.0810289382934570     -3.6861784458160400
O          1.3221813440322876     -0.5244217514991760     -4.4079761505126953
H          0.3745824694633484     -1.1216201782226562     -5.6507258415222168
H          1.3157389163970947     -0.6391845941543579     -4.7106857299804688
O          4.2706112861633301      1.0549993515014648     -2.0365972518920898
H          5.6390547752380371     -0.9877209663391113     -2.1625609397888184
H          3.0655367374420166      0.7896257042884827     -1.4321699142456055
O         -3.0218360424041748     -2.1993067264556885      3.1507692337036133
H         -4.7773666381835938     -2.2906944751739502      2.9727721214294434
H         -3.8907365798950195     -0.6410219669342041      2.7798113822937012
O          4.4505085945129395     -2.0932576656341553     -1.5291299819946289
H          3.0466172695159912     -2.2830171585083008     -2.9947829246520996
H          2.6997497081756592     -1.4274090528488159     -0.8512818217277527
O          0.6582226157188416     -3.8332002162933350      3.2436463832855225
H          2.1131436824798584     -2.3702883720397949      3.4915478229522705
H          2.0197741985321045     -4.7719769477844238      4.4208459854125977
51

C          0.0927770584821701     -1.1600000858306885      0.0983739346265793
C          0.0541965849697590      0.4446823596954346     -0.3072294592857361
C          1.5119814872741699     -0.2059007883071899      0.0786816552281380
O          2.0855059623718262      0.0131377056241035      0.1548003852367401
H         -0.9210739731788635     -1.8938096761703491      0.0184449814260006
H         -0.9453316330909729      1.1495729684829712     -0.8119170069694519
O          2.0855059623718262      0.0131377056241035      0.1548003852367401
H         -0.9210739731788635     -1.8938096761703491      0.0184449814260006
H         -0.9453316330909729      1.1495729684829712     -0.8119170069694519
O         -2.8863224983215332     -0.6134629249572754     -1.3205535411834717
H         -3.0843667984008789     -0.8137543201446533     -0.9010956883430481
H         -3.3447983264923096     -0.4443601071834564      0.5019822716712952
O         -2.7699382305145264      0.5851757526397705      1.7226909399032593
H         -2.4263820648193359      2.1192464828491211      2.1660168170928955
H         -0.6036978960037231      0.9379603862762451      2.6109712123870850
O         -1.1553796529769897     -1.5142525434494019     -3.3005182743072510
H         -2.8851292133331299     -1.1081864833831787     -4.3006291389465332
H         -2.3534660339355469     -1.0979620218276978     -2.0141742229461670
O          1.1982777118682861     -3.0771145820617676     -1.9437954425811768
H         -0.5337898731231689     -3.0910665988922119     -3.5809023380279541
H          1.6370100975036621     -3.1454372406005859     -1.8375340700149536
O         -1.2017726898193359     -3.5951416492462158      1.3443628549575806
H          0.0680292323231697     -4.7365741729736328      3.0565137863159180
H         -0.4101693332195282     -4.1527891159057617      1.1606464385986328
O          3.1317665576934814      3.0560543537139893      0.1530313789844513
H          3.5086801052093506      3.0346655845642090      0.1355508416891098
H          4.5001230239868164      2.4887919425964355     -0.8269736170768738
O          3.2470796108245850     -1.8945996761322021      2.3432705402374268
H          5.2167992591857910     -2.6861550807952881      1.0302473306655884
H          3.6118848323822021     -2.3888633251190186      2.3745157718658447
O         -1.1696823835372925      3.6860466003417969     -2.5495491027832031
H          0.9917245507240295      3.6173923015594482     -3.0624704360961914
H         -0.5184174776077271      5.9800248146057129     -2.7675778865814209
O          1.4828107357025146      2.3899199962615967     -3.7495481967926025
H          0.7276683449745178      0.8555285334587097     -4.3315272331237793
H          2.6465418338775635      3.3217349052429199     -3.6299977302551270
O          1.3281973600387573     -0.5206742286682129     -4.3870143890380859
H          0.1941012293100357     -1.2459366321563721     -5.8211359977722168
H          1.4080926179885864     -0.6212663054466248     -4.8984255790710449
O          4.2662267684936523      1.0745302438735962     -2.0430877208709717
H          5.7854332923889160     -1.2078009843826294     -2.1690571308135986
H          2.9565370082855225      0.7702903747558594     -1.4926376342773438
O         -3.0029046535491943     -2.2124629020690918      3.1581132411956787
H         -5.0077662467956543     -2.2352631092071533      2.9286978244781494
H         -4.0768489837646484     -0.5029593110084534      2.7709488868713379
O          4.4792418479919434     -2.0959107875823975     -1.5262184143066406
H          2.8832037448883057     -2.2939791679382324     -3.1265704631805420
H          2.4699561595916748     -1.3481665849685669     -0.7974578142166138
O          0.6287282705307007     -3.8303856849670410      3.2278153896331787
H          2.2693910598754883     -2.2432148456573486      3.5561027526855469
H          2.1957402229309082     -4.8601651191711426      4.5622682571411133
